
Version,
  24.2;                                   !- Version Identifier

Timestep,
  12;                                     !- Number of Timesteps per Hour

LifeCycleCost:Parameters,
  Life Cycle Cost Parameters,             !- Name
  EndOfYear,                              !- Discounting Convention
  ConstantDollar,                         !- Inflation Approach
  0.03,                                   !- Real Discount Rate
  ,                                       !- Nominal Discount Rate
  ,                                       !- Inflation
  ,                                       !- Base Date Month
  2011,                                   !- Base Date Year
  ,                                       !- Service Date Month
  2011,                                   !- Service Date Year
  25,                                     !- Length of Study Period in Years
  ,                                       !- Tax rate
  None;                                   !- Depreciation Method

LifeCycleCost:UsePriceEscalation,
  U.S. Avg  Commercial-Electricity,       !- Name
  Electricity,                            !- Resource
  2011,                                   !- Escalation Start Year
  January,                                !- Escalation Start Month
  0.9838,                                 !- Year Escalation 1
  0.9730,                                 !- Year Escalation 2
  0.9632,                                 !- Year Escalation 3
  0.9611,                                 !- Year Escalation 4
  0.9571,                                 !- Year Escalation 5
  0.9553,                                 !- Year Escalation 6
  0.9539,                                 !- Year Escalation 7
  0.9521,                                 !- Year Escalation 8
  0.9546,                                 !- Year Escalation 9
  0.9550,                                 !- Year Escalation 10
  0.9553,                                 !- Year Escalation 11
  0.9564,                                 !- Year Escalation 12
  0.9575,                                 !- Year Escalation 13
  0.9596,                                 !- Year Escalation 14
  0.9618,                                 !- Year Escalation 15
  0.9614,                                 !- Year Escalation 16
  0.9618,                                 !- Year Escalation 17
  0.9618,                                 !- Year Escalation 18
  0.9593,                                 !- Year Escalation 19
  0.9589,                                 !- Year Escalation 20
  0.9607,                                 !- Year Escalation 21
  0.9625,                                 !- Year Escalation 22
  0.9650,                                 !- Year Escalation 23
  0.9708,                                 !- Year Escalation 24
  0.9751,                                 !- Year Escalation 25
  0.9762,                                 !- Year Escalation 26
  0.9766,                                 !- Year Escalation 27
  0.9766,                                 !- Year Escalation 28
  0.9769,                                 !- Year Escalation 29
  0.9773;                                 !- Year Escalation 30

LifeCycleCost:UsePriceEscalation,
  U.S. Avg  Commercial-Distillate Oil,    !- Name
  FuelOilNo1,                             !- Resource
  2011,                                   !- Escalation Start Year
  January,                                !- Escalation Start Month
  0.9714,                                 !- Year Escalation 1
  0.9730,                                 !- Year Escalation 2
  0.9942,                                 !- Year Escalation 3
  1.0164,                                 !- Year Escalation 4
  1.0541,                                 !- Year Escalation 5
  1.0928,                                 !- Year Escalation 6
  1.1267,                                 !- Year Escalation 7
  1.1580,                                 !- Year Escalation 8
  1.1792,                                 !- Year Escalation 9
  1.1967,                                 !- Year Escalation 10
  1.2200,                                 !- Year Escalation 11
  1.2333,                                 !- Year Escalation 12
  1.2566,                                 !- Year Escalation 13
  1.2709,                                 !- Year Escalation 14
  1.2826,                                 !- Year Escalation 15
  1.2985,                                 !- Year Escalation 16
  1.3102,                                 !- Year Escalation 17
  1.3250,                                 !- Year Escalation 18
  1.3261,                                 !- Year Escalation 19
  1.3282,                                 !- Year Escalation 20
  1.3324,                                 !- Year Escalation 21
  1.3356,                                 !- Year Escalation 22
  1.3431,                                 !- Year Escalation 23
  1.3510,                                 !- Year Escalation 24
  1.3568,                                 !- Year Escalation 25
  1.3606,                                 !- Year Escalation 26
  1.3637,                                 !- Year Escalation 27
  1.3674,                                 !- Year Escalation 28
  1.3706,                                 !- Year Escalation 29
  1.3743;                                 !- Year Escalation 30

LifeCycleCost:UsePriceEscalation,
  U.S. Avg  Commercial-Residual Oil,      !- Name
  FuelOilNo2,                             !- Resource
  2011,                                   !- Escalation Start Year
  January,                                !- Escalation Start Month
  0.8469,                                 !- Year Escalation 1
  0.8257,                                 !- Year Escalation 2
  0.8681,                                 !- Year Escalation 3
  0.8988,                                 !- Year Escalation 4
  0.9289,                                 !- Year Escalation 5
  0.9604,                                 !- Year Escalation 6
  0.9897,                                 !- Year Escalation 7
  1.0075,                                 !- Year Escalation 8
  1.0314,                                 !- Year Escalation 9
  1.0554,                                 !- Year Escalation 10
  1.0861,                                 !- Year Escalation 11
  1.1278,                                 !- Year Escalation 12
  1.1497,                                 !- Year Escalation 13
  1.1620,                                 !- Year Escalation 14
  1.1743,                                 !- Year Escalation 15
  1.1852,                                 !- Year Escalation 16
  1.1948,                                 !- Year Escalation 17
  1.2037,                                 !- Year Escalation 18
  1.2071,                                 !- Year Escalation 19
  1.2119,                                 !- Year Escalation 20
  1.2139,                                 !- Year Escalation 21
  1.2194,                                 !- Year Escalation 22
  1.2276,                                 !- Year Escalation 23
  1.2365,                                 !- Year Escalation 24
  1.2420,                                 !- Year Escalation 25
  1.2461,                                 !- Year Escalation 26
  1.2509,                                 !- Year Escalation 27
  1.2550,                                 !- Year Escalation 28
  1.2591,                                 !- Year Escalation 29
  1.2638;                                 !- Year Escalation 30

LifeCycleCost:UsePriceEscalation,
  U.S. Avg  Commercial-Natural gas,       !- Name
  NaturalGas,                             !- Resource
  2011,                                   !- Escalation Start Year
  January,                                !- Escalation Start Month
  0.9823,                                 !- Year Escalation 1
  0.9557,                                 !- Year Escalation 2
  0.9279,                                 !- Year Escalation 3
  0.9257,                                 !- Year Escalation 4
  0.9346,                                 !- Year Escalation 5
  0.9412,                                 !- Year Escalation 6
  0.9512,                                 !- Year Escalation 7
  0.9645,                                 !- Year Escalation 8
  0.9856,                                 !- Year Escalation 9
  1.0067,                                 !- Year Escalation 10
  1.0222,                                 !- Year Escalation 11
  1.0410,                                 !- Year Escalation 12
  1.0610,                                 !- Year Escalation 13
  1.0787,                                 !- Year Escalation 14
  1.0942,                                 !- Year Escalation 15
  1.1098,                                 !- Year Escalation 16
  1.1220,                                 !- Year Escalation 17
  1.1308,                                 !- Year Escalation 18
  1.1386,                                 !- Year Escalation 19
  1.1486,                                 !- Year Escalation 20
  1.1619,                                 !- Year Escalation 21
  1.1763,                                 !- Year Escalation 22
  1.1918,                                 !- Year Escalation 23
  1.2118,                                 !- Year Escalation 24
  1.2284,                                 !- Year Escalation 25
  1.2439,                                 !- Year Escalation 26
  1.2605,                                 !- Year Escalation 27
  1.2772,                                 !- Year Escalation 28
  1.2938,                                 !- Year Escalation 29
  1.3115;                                 !- Year Escalation 30

LifeCycleCost:UsePriceEscalation,
  U.S. Avg  Commercial-Coal,              !- Name
  Coal,                                   !- Resource
  2011,                                   !- Escalation Start Year
  January,                                !- Escalation Start Month
  0.9970,                                 !- Year Escalation 1
  1.0089,                                 !- Year Escalation 2
  1.0089,                                 !- Year Escalation 3
  0.9941,                                 !- Year Escalation 4
  0.9941,                                 !- Year Escalation 5
  1.0000,                                 !- Year Escalation 6
  1.0030,                                 !- Year Escalation 7
  1.0059,                                 !- Year Escalation 8
  1.0089,                                 !- Year Escalation 9
  1.0119,                                 !- Year Escalation 10
  1.0148,                                 !- Year Escalation 11
  1.0178,                                 !- Year Escalation 12
  1.0208,                                 !- Year Escalation 13
  1.0267,                                 !- Year Escalation 14
  1.0297,                                 !- Year Escalation 15
  1.0356,                                 !- Year Escalation 16
  1.0415,                                 !- Year Escalation 17
  1.0534,                                 !- Year Escalation 18
  1.0564,                                 !- Year Escalation 19
  1.0593,                                 !- Year Escalation 20
  1.0653,                                 !- Year Escalation 21
  1.0712,                                 !- Year Escalation 22
  1.0742,                                 !- Year Escalation 23
  1.0801,                                 !- Year Escalation 24
  1.0831,                                 !- Year Escalation 25
  1.0831,                                 !- Year Escalation 26
  1.0861,                                 !- Year Escalation 27
  1.0890,                                 !- Year Escalation 28
  1.0920,                                 !- Year Escalation 29
  1.0950;                                 !- Year Escalation 30

Building,
  -SuperMarket-ASHRAE 169-2013-2A created: 2021-08-10 18:02:30 -0400, !- Name
  ,                                       !- North Axis {deg}
  City,                                   !- Terrain
  ,                                       !- Loads Convergence Tolerance Value {W}
  ,                                       !- Temperature Convergence Tolerance Value {deltaC}
  ,                                       !- Solar Distribution
  ,                                       !- Maximum Number of Warmup Days
  ;                                       !- Minimum Number of Warmup Days

Zone,
  Active Storage ZN,                      !- Name
  -0,                                     !- Direction of Relative North {deg}
  2.88764567812905e-15,                   !- X Origin {m}
  0,                                      !- Y Origin {m}
  1.29290854704004e-16,                   !- Z Origin {m}
  ,                                       !- Type
  1,                                      !- Multiplier
  ,                                       !- Ceiling Height {m}
  ,                                       !- Volume {m3}
  ,                                       !- Floor Area {m2}
  ,                                       !- Zone Inside Convection Algorithm
  ,                                       !- Zone Outside Convection Algorithm
  Yes;                                    !- Part of Total Floor Area

Space,
  Active Storage,                         !- Name
  Active Storage ZN,                      !- Zone Name
  ,                                       !- Ceiling Height {m}
  ,                                       !- Volume {m3}
  ,                                       !- Floor Area {m2}
  SuperMarket DryStorage;                 !- Space Type

SpaceList,
  SuperMarket DryStorage,                 !- Name
  Active Storage;                         !- Space Name 1

Lights,
  SuperMarket DryStorage Lights,          !- Name
  SuperMarket DryStorage,                 !- Zone or ZoneList or Space or SpaceList Name
  SuperMarket Bldg Light,                 !- Schedule Name
  Watts/Area,                             !- Design Level Calculation Method
  ,                                       !- Lighting Level {W}
  8.61112833336778,                       !- Watts per Floor Area {W/m2}
  ,                                       !- Watts per Person {W/person}
  0,                                      !- Return Air Fraction
  0.7,                                    !- Fraction Radiant
  0.2,                                    !- Fraction Visible
  1,                                      !- Fraction Replaceable
  General;                                !- End-Use Subcategory

ScheduleTypeLimits,
  Fractional,                             !- Name
  0,                                      !- Lower Limit Value {BasedOnField A3}
  1,                                      !- Upper Limit Value {BasedOnField A3}
  Continuous;                             !- Numeric Type

Schedule:Day:Interval,
  SuperMarket Bldg Light Sun Day,         !- Name
  Fractional,                             !- Schedule Type Limits Name
  No,                                     !- Interpolate to Timestep
  06:00,                                  !- Time 1 {hh:mm}
  0.05,                                   !- Value Until Time 1
  10:00,                                  !- Time 2 {hh:mm}
  0.1,                                    !- Value Until Time 2
  12:00,                                  !- Time 3 {hh:mm}
  0.4,                                    !- Value Until Time 3
  17:00,                                  !- Time 4 {hh:mm}
  0.6,                                    !- Value Until Time 4
  18:00,                                  !- Time 5 {hh:mm}
  0.4,                                    !- Value Until Time 5
  22:00,                                  !- Time 6 {hh:mm}
  0.2,                                    !- Value Until Time 6
  24:00,                                  !- Time 7 {hh:mm}
  0.05;                                   !- Value Until Time 7

Schedule:Day:Interval,
  SuperMarket Bldg Light Default,         !- Name
  Fractional,                             !- Schedule Type Limits Name
  No,                                     !- Interpolate to Timestep
  06:00,                                  !- Time 1 {hh:mm}
  0.05,                                   !- Value Until Time 1
  08:00,                                  !- Time 2 {hh:mm}
  0.2,                                    !- Value Until Time 2
  09:00,                                  !- Time 3 {hh:mm}
  0.5,                                    !- Value Until Time 3
  18:00,                                  !- Time 4 {hh:mm}
  0.9,                                    !- Value Until Time 4
  20:00,                                  !- Time 5 {hh:mm}
  0.6,                                    !- Value Until Time 5
  21:00,                                  !- Time 6 {hh:mm}
  0.5,                                    !- Value Until Time 6
  22:00,                                  !- Time 7 {hh:mm}
  0.2,                                    !- Value Until Time 7
  24:00,                                  !- Time 8 {hh:mm}
  0.05;                                   !- Value Until Time 8

Schedule:Day:Interval,
  SuperMarket Bldg Light Sat Day,         !- Name
  Fractional,                             !- Schedule Type Limits Name
  No,                                     !- Interpolate to Timestep
  06:00,                                  !- Time 1 {hh:mm}
  0.05,                                   !- Value Until Time 1
  08:00,                                  !- Time 2 {hh:mm}
  0.1,                                    !- Value Until Time 2
  09:00,                                  !- Time 3 {hh:mm}
  0.3,                                    !- Value Until Time 3
  10:00,                                  !- Time 4 {hh:mm}
  0.6,                                    !- Value Until Time 4
  18:00,                                  !- Time 5 {hh:mm}
  0.9,                                    !- Value Until Time 5
  19:00,                                  !- Time 6 {hh:mm}
  0.5,                                    !- Value Until Time 6
  21:00,                                  !- Time 7 {hh:mm}
  0.3,                                    !- Value Until Time 7
  22:00,                                  !- Time 8 {hh:mm}
  0.1,                                    !- Value Until Time 8
  24:00,                                  !- Time 9 {hh:mm}
  0.05;                                   !- Value Until Time 9

Schedule:Week:Daily,
  SuperMarket Bldg Light Week Rule - Jan1-Dec31, !- Name
  SuperMarket Bldg Light Sun Day,         !- Sunday Schedule:Day Name
  SuperMarket Bldg Light Default,         !- Monday Schedule:Day Name
  SuperMarket Bldg Light Default,         !- Tuesday Schedule:Day Name
  SuperMarket Bldg Light Default,         !- Wednesday Schedule:Day Name
  SuperMarket Bldg Light Default,         !- Thursday Schedule:Day Name
  SuperMarket Bldg Light Default,         !- Friday Schedule:Day Name
  SuperMarket Bldg Light Sat Day,         !- Saturday Schedule:Day Name
  SuperMarket Bldg Light Default,         !- Holiday Schedule:Day Name
  SuperMarket Bldg Light Summer Design Day, !- SummerDesignDay Schedule:Day Name
  SuperMarket Bldg Light Winter Design Day, !- WinterDesignDay Schedule:Day Name
  SuperMarket Bldg Light Default,         !- CustomDay1 Schedule:Day Name
  SuperMarket Bldg Light Default;         !- CustomDay2 Schedule:Day Name

Schedule:Year,
  SuperMarket Bldg Light,                 !- Name
  Fractional,                             !- Schedule Type Limits Name
  SuperMarket Bldg Light Week Rule - Jan1-Dec31, !- Schedule:Week Name 1
  1,                                      !- Start Month 1
  1,                                      !- Start Day 1
  12,                                     !- End Month 1
  31;                                     !- End Day 1

Schedule:Day:Interval,
  SuperMarket Bldg Light Summer Design Day, !- Name
  Fractional,                             !- Schedule Type Limits Name
  No,                                     !- Interpolate to Timestep
  24:00,                                  !- Time 1 {hh:mm}
  1;                                      !- Value Until Time 1

Schedule:Day:Interval,
  SuperMarket Bldg Light Winter Design Day, !- Name
  Fractional,                             !- Schedule Type Limits Name
  No,                                     !- Interpolate to Timestep
  24:00,                                  !- Time 1 {hh:mm}
  0;                                      !- Value Until Time 1

People,
  SuperMarket DryStorage People,          !- Name
  SuperMarket DryStorage,                 !- Zone or ZoneList or Space or SpaceList Name
  SuperMarket Bldg Occ,                   !- Number of People Schedule Name
  People/Area,                            !- Number of People Calculation Method
  ,                                       !- Number of People
  0.0359514607918105,                     !- People per Floor Area {person/m2}
  ,                                       !- Floor Area per Person {m2/person}
  0.3,                                    !- Fraction Radiant
  ,                                       !- Sensible Heat Fraction
  SuperMarket Activity,                   !- Activity Level Schedule Name
  ,                                       !- Carbon Dioxide Generation Rate {m3/s-W}
  ,                                       !- Enable ASHRAE 55 Comfort Warnings
  ,                                       !- Mean Radiant Temperature Calculation Type
  ,                                       !- Surface Name/Angle Factor List Name
  Work Efficiency Schedule,               !- Work Efficiency Schedule Name
  ,                                       !- Clothing Insulation Calculation Method
  ,                                       !- Clothing Insulation Calculation Method Schedule Name
  Clothing Schedule,                      !- Clothing Insulation Schedule Name
  Air Velocity Schedule;                  !- Air Velocity Schedule Name

Schedule:Day:Interval,
  SuperMarket Bldg Occ Sun Day,           !- Name
  Fractional,                             !- Schedule Type Limits Name
  No,                                     !- Interpolate to Timestep
  06:00,                                  !- Time 1 {hh:mm}
  0,                                      !- Value Until Time 1
  10:00,                                  !- Time 2 {hh:mm}
  0.1,                                    !- Value Until Time 2
  12:00,                                  !- Time 3 {hh:mm}
  0.2,                                    !- Value Until Time 3
  17:00,                                  !- Time 4 {hh:mm}
  0.4,                                    !- Value Until Time 4
  18:00,                                  !- Time 5 {hh:mm}
  0.2,                                    !- Value Until Time 5
  22:00,                                  !- Time 6 {hh:mm}
  0.1,                                    !- Value Until Time 6
  24:00,                                  !- Time 7 {hh:mm}
  0;                                      !- Value Until Time 7

Schedule:Day:Interval,
  SuperMarket Bldg Occ Default,           !- Name
  Fractional,                             !- Schedule Type Limits Name
  No,                                     !- Interpolate to Timestep
  06:00,                                  !- Time 1 {hh:mm}
  0,                                      !- Value Until Time 1
  08:00,                                  !- Time 2 {hh:mm}
  0.1,                                    !- Value Until Time 2
  09:00,                                  !- Time 3 {hh:mm}
  0.2,                                    !- Value Until Time 3
  11:00,                                  !- Time 4 {hh:mm}
  0.5,                                    !- Value Until Time 4
  15:00,                                  !- Time 5 {hh:mm}
  0.7,                                    !- Value Until Time 5
  16:00,                                  !- Time 6 {hh:mm}
  0.8,                                    !- Value Until Time 6
  17:00,                                  !- Time 7 {hh:mm}
  0.7,                                    !- Value Until Time 7
  19:00,                                  !- Time 8 {hh:mm}
  0.5,                                    !- Value Until Time 8
  22:00,                                  !- Time 9 {hh:mm}
  0.3,                                    !- Value Until Time 9
  24:00,                                  !- Time 10 {hh:mm}
  0;                                      !- Value Until Time 10

Schedule:Day:Interval,
  SuperMarket Bldg Occ Sat Day,           !- Name
  Fractional,                             !- Schedule Type Limits Name
  No,                                     !- Interpolate to Timestep
  06:00,                                  !- Time 1 {hh:mm}
  0,                                      !- Value Until Time 1
  08:00,                                  !- Time 2 {hh:mm}
  0.1,                                    !- Value Until Time 2
  09:00,                                  !- Time 3 {hh:mm}
  0.2,                                    !- Value Until Time 3
  10:00,                                  !- Time 4 {hh:mm}
  0.5,                                    !- Value Until Time 4
  11:00,                                  !- Time 5 {hh:mm}
  0.6,                                    !- Value Until Time 5
  17:00,                                  !- Time 6 {hh:mm}
  0.8,                                    !- Value Until Time 6
  18:00,                                  !- Time 7 {hh:mm}
  0.6,                                    !- Value Until Time 7
  21:00,                                  !- Time 8 {hh:mm}
  0.2,                                    !- Value Until Time 8
  22:00,                                  !- Time 9 {hh:mm}
  0.1,                                    !- Value Until Time 9
  24:00,                                  !- Time 10 {hh:mm}
  0;                                      !- Value Until Time 10

Schedule:Week:Daily,
  SuperMarket Bldg Occ Week Rule - Jan1-Dec31, !- Name
  SuperMarket Bldg Occ Sun Day,           !- Sunday Schedule:Day Name
  SuperMarket Bldg Occ Default,           !- Monday Schedule:Day Name
  SuperMarket Bldg Occ Default,           !- Tuesday Schedule:Day Name
  SuperMarket Bldg Occ Default,           !- Wednesday Schedule:Day Name
  SuperMarket Bldg Occ Default,           !- Thursday Schedule:Day Name
  SuperMarket Bldg Occ Default,           !- Friday Schedule:Day Name
  SuperMarket Bldg Occ Sat Day,           !- Saturday Schedule:Day Name
  SuperMarket Bldg Occ Default,           !- Holiday Schedule:Day Name
  SuperMarket Bldg Occ Summer Design Day, !- SummerDesignDay Schedule:Day Name
  SuperMarket Bldg Occ Winter Design Day, !- WinterDesignDay Schedule:Day Name
  SuperMarket Bldg Occ Default,           !- CustomDay1 Schedule:Day Name
  SuperMarket Bldg Occ Default;           !- CustomDay2 Schedule:Day Name

Schedule:Year,
  SuperMarket Bldg Occ,                   !- Name
  Fractional,                             !- Schedule Type Limits Name
  SuperMarket Bldg Occ Week Rule - Jan1-Dec31, !- Schedule:Week Name 1
  1,                                      !- Start Month 1
  1,                                      !- Start Day 1
  12,                                     !- End Month 1
  31;                                     !- End Day 1

Schedule:Day:Interval,
  SuperMarket Bldg Occ Summer Design Day, !- Name
  Fractional,                             !- Schedule Type Limits Name
  No,                                     !- Interpolate to Timestep
  24:00,                                  !- Time 1 {hh:mm}
  1;                                      !- Value Until Time 1

Schedule:Day:Interval,
  SuperMarket Bldg Occ Winter Design Day, !- Name
  Fractional,                             !- Schedule Type Limits Name
  No,                                     !- Interpolate to Timestep
  24:00,                                  !- Time 1 {hh:mm}
  0;                                      !- Value Until Time 1

ScheduleTypeLimits,
  ActivityLevel,                          !- Name
  0,                                      !- Lower Limit Value {BasedOnField A3}
  ,                                       !- Upper Limit Value {BasedOnField A3}
  Continuous,                             !- Numeric Type
  activitylevel;                          !- Unit Type

Schedule:Day:Interval,
  SuperMarket Activity Default,           !- Name
  ActivityLevel,                          !- Schedule Type Limits Name
  No,                                     !- Interpolate to Timestep
  24:00,                                  !- Time 1 {hh:mm}
  120;                                    !- Value Until Time 1

Schedule:Week:Daily,
  SuperMarket Activity Week Rule - Jan1-Dec31, !- Name
  SuperMarket Activity Default,           !- Sunday Schedule:Day Name
  SuperMarket Activity Default,           !- Monday Schedule:Day Name
  SuperMarket Activity Default,           !- Tuesday Schedule:Day Name
  SuperMarket Activity Default,           !- Wednesday Schedule:Day Name
  SuperMarket Activity Default,           !- Thursday Schedule:Day Name
  SuperMarket Activity Default,           !- Friday Schedule:Day Name
  SuperMarket Activity Default,           !- Saturday Schedule:Day Name
  SuperMarket Activity Default,           !- Holiday Schedule:Day Name
  SuperMarket Activity Summer Design Day, !- SummerDesignDay Schedule:Day Name
  SuperMarket Activity Winter Design Day, !- WinterDesignDay Schedule:Day Name
  SuperMarket Activity Default,           !- CustomDay1 Schedule:Day Name
  SuperMarket Activity Default;           !- CustomDay2 Schedule:Day Name

Schedule:Year,
  SuperMarket Activity,                   !- Name
  ActivityLevel,                          !- Schedule Type Limits Name
  SuperMarket Activity Week Rule - Jan1-Dec31, !- Schedule:Week Name 1