!-Generator IDFEditor 1.51
!-Option SortedOrder

!-NOTE: All comments with '!-' are ignored by the IDFEditor and are generated automatically.
!-      Use '!' comments if they need to be retained when using the IDFEditor.


!-   ===========  ALL OBJECTS IN CLASS: FLUIDPROPERTIES:NAME ===========

!===============================================================================
! FluidPropertiesRefData_R449a.idf
!
! ***************************************************
! FLUID PROPERTIES DATA - REFRIGERANTS
! ***************************************************
!
! Refrigerant properties in this data set are:
! Refrigerant:
! R449a
! The objects and syntax in this dataset comply with EnergyPlus, Version 8.4.0 and above, unless otherwise noted.
!  Version,
!    9.0;                    !- Version Identifier
! =============================================================================
!
!                Property Data for Refrigerant R449a
!
! =============================================================================
FluidProperties:Name,
    R449a,                   !- Fluid Name
    Refrigerant;             !- Fluid Type


!-   ===========  ALL OBJECTS IN CLASS: FLUIDPROPERTIES:TEMPERATURES ===========

FluidProperties:Temperatures,
    R449aSaturatedTemperatures,  !- Name
    -68,                     !- Temperature 1 {C}
    -66,                     !- Temperature 2 {C}
    -64,                     !- Temperature 3 {C}
    -62,                     !- Temperature 4 {C}
    -60,                     !- Temperature 5 {C}
    -58,                     !- Temperature 6 {C}
    -56,                     !- Temperature 7 {C}
    -54,                     !- Temperature 8 {C}
    -52,                     !- Temperature 9 {C}
    -50,                     !- Temperature 10 {C}
    -48,                     !- Temperature 11 {C}
    -46,                     !- Temperature 12 {C}
    -44,                     !- Temperature 13 {C}
    -42,                     !- Temperature 14 {C}
    -40,                     !- Temperature 15 {C}
    -38,                     !- Temperature 16 {C}
    -36,                     !- Temperature 17 {C}
    -34,                     !- Temperature 18 {C}
    -32,                     !- Temperature 19 {C}
    -30,                     !- Temperature 20 {C}
    -28,                     !- Temperature 21 {C}
    -26,                     !- Temperature 22 {C}
    -24,                     !- Temperature 23 {C}
    -22,                     !- Temperature 24 {C}
    -20,                     !- Temperature 25 {C}
    -18,                     !- Temperature 26 {C}
    -16,                     !- Temperature 27 {C}
    -14,                     !- Temperature 28 {C}
    -12,                     !- Temperature 29 {C}
    -10,                     !- Temperature 30 {C}
    -8,                      !- Temperature 31 {C}
    -6,                      !- Temperature 32 {C}
    -4,                      !- Temperature 33 {C}
    -2,                      !- Temperature 34 {C}
    0,                       !- Temperature 35 {C}
    2,                       !- Temperature 36 {C}
    4,                       !- Temperature 37 {C}
    6,                       !- Temperature 38 {C}
    8,                       !- Temperature 39 {C}
    10,                      !- Temperature 40 {C}
    12,                      !- Temperature 41 {C}
    14,                      !- Temperature 42 {C}
    16,                      !- Temperature 43 {C}
    18,                      !- Temperature 44 {C}
    20,                      !- Temperature 45 {C}
    22,                      !- Temperature 46 {C}
    24,                      !- Temperature 47 {C}
    26,                      !- Temperature 48 {C}
    28,                      !- Temperature 49 {C}
    30,                      !- Temperature 50 {C}
    32,                      !- Temperature 51 {C}
    34,                      !- Temperature 52 {C}
    36,                      !- Temperature 53 {C}
    38,                      !- Temperature 54 {C}
    40,                      !- Temperature 55 {C}
    42,                      !- Temperature 56 {C}
    44,                      !- Temperature 57 {C}
    46,                      !- Temperature 58 {C}
    48,                      !- Temperature 59 {C}
    50,                      !- Temperature 60 {C}
    52,                      !- Temperature 61 {C}
    54,                      !- Temperature 62 {C}
    56,                      !- Temperature 63 {C}
    58,                      !- Temperature 64 {C}
    60,                      !- Temperature 65 {C}
    62,                      !- Temperature 66 {C}
    64,                      !- Temperature 67 {C}
    66,                      !- Temperature 68 {C}
    68,                      !- Temperature 69 {C}
    70,                      !- Temperature 70 {C}
    72,                      !- Temperature 71 {C}
    74,                      !- Temperature 72 {C}
    76,                      !- Temperature 73 {C}
    78,                      !- Temperature 74 {C}
    80,                      !- Temperature 75 {C}
    82;                      !- Temperature 76 {C}

FluidProperties:Temperatures,
    R449aSuperHeatTemperatures,  !- Name
    -68,                     !- Temperature 1 {C}
    -64,                     !- Temperature 2 {C}
    -60,                     !- Temperature 3 {C}
    -56,                     !- Temperature 4 {C}
    -52,                     !- Temperature 5 {C}
    -48,                     !- Temperature 6 {C}
    -44,                     !- Temperature 7 {C}
    -40,                     !- Temperature 8 {C}
    -36,                     !- Temperature 9 {C}
    -32,                     !- Temperature 10 {C}
    -28,                     !- Temperature 11 {C}
    -24,                     !- Temperature 12 {C}
    -20,                     !- Temperature 13 {C}
    -16,                     !- Temperature 14 {C}
    -12,                     !- Temperature 15 {C}
    -8,                      !- Temperature 16 {C}
    -4,                      !- Temperature 17 {C}
    0,                       !- Temperature 18 {C}
    4,                       !- Temperature 19 {C}
    8,                       !- Temperature 20 {C}
    12,                      !- Temperature 21 {C}
    16,                      !- Temperature 22 {C}
    20,                      !- Temperature 23 {C}
    24,                      !- Temperature 24 {C}
    28,                      !- Temperature 25 {C}
    32,                      !- Temperature 26 {C}
    36,                      !- Temperature 27 {C}
    40,                      !- Temperature 28 {C}
    44,                      !- Temperature 29 {C}
    48,                      !- Temperature 30 {C}
    52,                      !- Temperature 31 {C}
    56,                      !- Temperature 32 {C}
    60,                      !- Temperature 33 {C}
    64,                      !- Temperature 34 {C}
    68,                      !- Temperature 35 {C}
    72,                      !- Temperature 36 {C}
    76,                      !- Temperature 37 {C}
    80,                      !- Temperature 38 {C}
    82;                      !- Temperature 39 {C}


!-   ===========  ALL OBJECTS IN CLASS: FLUIDPROPERTIES:SATURATED ===========

! =============================================================================
!
!                Saturated Property Data for Refrigerant R449a
!
!                Critical Pressure: 4499.7 kPa
!                Critical Temperature: 82.073 degC
! =============================================================================
FluidProperties:Saturated,
    R449a,                   !- Fluid Name
    Pressure,                !- Fluid Property Type
    FluidGas,                !- Fluid Phase
    R449aSaturatedTemperatures,  !- Temperature Values Name
    20551,                   !- Property Value 1
    23438,                   !- Property Value 2
    26649,                   !- Property Value 3
    30210,                   !- Property Value 4
    34149,                   !- Property Value 5
    38495,                   !- Property Value 6
    43279,                   !- Property Value 7
    48531,                   !- Property Value 8
    54285,                   !- Property Value 9
    60574,                   !- Property Value 10
    67434,                   !- Property Value 11
    74901,                   !- Property Value 12
    83012,                   !- Property Value 13
    91807,                   !- Property Value 14
    101320,                  !- Property Value 15
    111610,                  !- Property Value 16
    122700,                  !- Property Value 17
    134630,                  !- Property Value 18
    147470,                  !- Property Value 19
    161240,                  !- Property Value 20
    175990,                  !- Property Value 21
    191780,                  !- Property Value 22
    208650,                  !- Property Value 23
    226650,                  !- Property Value 24
    245840,                  !- Property Value 25
    266250,                  !- Property Value 26
    287950,                  !- Property Value 27
    310990,                  !- Property Value 28
    335430,                  !- Property Value 29
    361310,                  !- Property Value 30
    388690,                  !- Property Value 31
    417640,                  !- Property Value 32
    448210,                  !- Property Value 33
    480450,                  !- Property Value 34
    514440,                  !- Property Value 35
    550220,                  !- Property Value 36
    587870,                  !- Property Value 37
    627450,                  !- Property Value 38
    669010,                  !- Property Value 39
    712640,                  !- Property Value 40
    758390,                  !- Property Value 41
    806320,                  !- Property Value 42
    856520,                  !- Property Value 43
    909060,                  !- Property Value 44
    963990,                  !- Property Value 45
    1021400,                 !- Property Value 46
    1081400,                 !- Property Value 47
    1144000,                 !- Property Value 48
    1209300,                 !- Property Value 49
    1277400,                 !- Property Value 50
    1348400,                 !- Property Value 51
    1422300,                 !- Property Value 52
    1499300,                 !- Property Value 53
    1579400,                 !- Property Value 54
    1662800,                 !- Property Value 55
    1749500,                 !- Property Value 56
    1839700,                 !- Property Value 57
    1933400,                 !- Property Value 58
    2030700,                 !- Property Value 59
    2131900,                 !- Property Value 60
    2236900,                 !- Property Value 61
    2346000,                 !- Property Value 62
    2459300,                 !- Property Value 63
    2577000,                 !- Property Value 64
    2699100,                 !- Property Value 65
    2826000,                 !- Property Value 66
    2957900,                 !- Property Value 67
    3094900,                 !- Property Value 68
    3237400,                 !- Property Value 69
    3385700,                 !- Property Value 70
    3540400,                 !- Property Value 71
    3702000,                 !- Property Value 72
    3871500,                 !- Property Value 73
    4050300,                 !- Property Value 74
    4242000,                 !- Property Value 75
    4468000;                 !- Property Value 76

FluidProperties:Saturated,
    R449a,                   !- Fluid Name
    Density,                 !- Fluid Property Type
    Fluid,                   !- Fluid Phase
    R449aSaturatedTemperatures,  !- Temperature Values Name
    1413.9,                  !- Property Value 1
    1408.1,                  !- Property Value 2
    1402.4,                  !- Property Value 3
    1396.6,                  !- Property Value 4
    1390.8,                  !- Property Value 5
    1385,                    !- Property Value 6
    1379.2,                  !- Property Value 7
    1373.3,                  !- Property Value 8
    1367.4,                  !- Property Value 9
    1361.4,                  !- Property Value 10
    1355.4,                  !- Property Value 11
    1349.4,                  !- Property Value 12
    1343.3,                  !- Property Value 13
    1337.3,                  !- Property Value 14
    1331.1,                  !- Property Value 15
    1324.9,                  !- Property Value 16
    1318.7,                  !- Property Value 17
    1312.5,                  !- Property Value 18
    1306.2,                  !- Property Value 19
    1299.8,                  !- Property Value 20
    1293.4,                  !- Property Value 21
    1287,                    !- Property Value 22
    1280.5,                  !- Property Value 23
    1273.9,                  !- Property Value 24
    1267.3,                  !- Property Value 25
    1260.7,                  !- Property Value 26
    1253.9,                  !- Property Value 27
    1247.1,                  !- Property Value 28
    1240.3,                  !- Property Value 29
    1233.4,                  !- Property Value 30
    1226.4,                  !- Property Value 31
    1219.3,                  !- Property Value 32
    1212.1,                  !- Property Value 33
    1204.9,                  !- Property Value 34
    1197.6,                  !- Property Value 35
    1190.2,                  !- Property Value 36
    1182.7,                  !- Property Value 37
    1175.1,                  !- Property Value 38
    1167.4,                  !- Property Value 39
    1159.6,                  !- Property Value 40
    1151.7,                  !- Property Value 41
    1143.6,                  !- Property Value 42
    1135.5,                  !- Property Value 43
    1127.2,                  !- Property Value 44
    1118.8,                  !- Property Value 45
    1110.2,                  !- Property Value 46
    1101.5,                  !- Property Value 47
    1092.6,                  !- Property Value 48
    1083.5,                  !- Property Value 49
    1074.3,                  !- Property Value 50
    1064.9,                  !- Property Value 51
    1055.3,                  !- Property Value 52
    1045.4,                  !- Property Value 53
    1035.3,                  !- Property Value 54
    1025,                    !- Property Value 55
    1014.4,                  !- Property Value 56
    1003.5,                  !- Property Value 57
    992.26,                  !- Property Value 58
    980.68,                  !- Property Value 59
    968.7,                   !- Property Value 60
    956.29,                  !- Property Value 61
    943.4,                   !- Property Value 62
    929.96,                  !- Property Value 63
    915.9,                   !- Property Value 64
    901.14,                  !- Property Value 65
    885.56,                  !- Property Value 66
    869.03,                  !- Property Value 67
    851.35,                  !- Property Value 68
    832.28,                  !- Property Value 69
    811.47,                  !- Property Value 70
    788.4,                   !- Property Value 71
    762.26,                  !- Property Value 72
    731.63,                  !- Property Value 73
    693.6,                   !- Property Value 74
    639.88,                  !- Property Value 75
    500.4;                   !- Property Value 76

FluidProperties:Saturated,
    R449a,                   !- Fluid Name
    Density,                 !- Fluid Property Type
    FluidGas,                !- Fluid Phase
    R449aSaturatedTemperatures,  !- Temperature Values Name
    1.0659,                  !- Property Value 1
    1.2056,                  !- Property Value 2
    1.3596,                  !- Property Value 3
    1.5291,                  !- Property Value 4
    1.7151,                  !- Property Value 5
    1.9187,                  !- Property Value 6
    2.1413,                  !- Property Value 7
    2.3839,                  !- Property Value 8
    2.6479,                  !- Property Value 9
    2.9347,                  !- Property Value 10
    3.2455,                  !- Property Value 11
    3.5819,                  !- Property Value 12
    3.9452,                  !- Property Value 13
    4.337,                   !- Property Value 14
    4.759,                   !- Property Value 15
    5.2127,                  !- Property Value 16
    5.6998,                  !- Property Value 17
    6.222,                   !- Property Value 18
    6.7813,                  !- Property Value 19
    7.3794,                  !- Property Value 20
    8.0184,                  !- Property Value 21
    8.7001,                  !- Property Value 22
    9.4268,                  !- Property Value 23
    10.201,                  !- Property Value 24
    11.024,                  !- Property Value 25
    11.899,                  !- Property Value 26
    12.828,                  !- Property Value 27
    13.813,                  !- Property Value 28
    14.859,                  !- Property Value 29
    15.966,                  !- Property Value 30
    17.138,                  !- Property Value 31
    18.379,                  !- Property Value 32
    19.691,                  !- Property Value 33
    21.078,                  !- Property Value 34
    22.543,                  !- Property Value 35
    24.09,                   !- Property Value 36
    25.723,                  !- Property Value 37
    27.447,                  !- Property Value 38
    29.265,                  !- Property Value 39
    31.183,                  !- Property Value 40
    33.206,                  !- Property Value 41
    35.339,                  !- Property Value 42
    37.588,                  !- Property Value 43
    39.959,                  !- Property Value 44
    42.46,                   !- Property Value 45
    45.096,                  !- Property Value 46
    47.877,                  !- Property Value 47
    50.811,                  !- Property Value 48
    53.907,                  !- Property Value 49
    57.175,                  !- Property Value 50
    60.627,                  !- Property Value 51
    64.275,                  !- Property Value 52
    68.133,                  !- Property Value 53
    72.215,                  !- Property Value 54
    76.539,                  !- Property Value 55
    81.124,                  !- Property Value 56
    85.992,                  !- Property Value 57
    91.167,                  !- Property Value 58
    96.676,                  !- Property Value 59
    102.55,                  !- Property Value 60
    108.84,                  !- Property Value 61
    115.57,                  !- Property Value 62
    122.8,                   !- Property Value 63
    130.6,                   !- Property Value 64
    139.04,                  !- Property Value 65
    148.22,                  !- Property Value 66
    158.27,                  !- Property Value 67
    169.33,                  !- Property Value 68
    181.62,                  !- Property Value 69
    195.45,                  !- Property Value 70
    211.23,                  !- Property Value 71
    229.63,                  !- Property Value 72
    251.81,                  !- Property Value 73
    280.04,                  !- Property Value 74
    320.33,                  !- Property Value 75
    418.79;                  !- Property Value 76

FluidProperties:Saturated,
    R449a,                   !- Fluid Name
    Enthalpy,                !- Fluid Property Type
    Fluid,                   !- Fluid Phase
    R449aSaturatedTemperatures,  !- Temperature Values Name
    109740,                  !- Property Value 1
    112280,                  !- Property Value 2
    114820,                  !- Property Value 3
    117360,                  !- Property Value 4
    119910,                  !- Property Value 5
    122470,                  !- Property Value 6
    125030,                  !- Property Value 7
    127590,                  !- Property Value 8
    130160,                  !- Property Value 9
    132730,                  !- Property Value 10
    135320,                  !- Property Value 11
    137900,                  !- Property Value 12
    140500,                  !- Property Value 13
    143100,                  !- Property Value 14
    145710,                  !- Property Value 15
    148330,                  !- Property Value 16
    150960,                  !- Property Value 17
    153590,                  !- Property Value 18
    156230,                  !- Property Value 19
    158890,                  !- Property Value 20
    161550,                  !- Property Value 21
    164220,                  !- Property Value 22
    166900,                  !- Property Value 23
    169590,                  !- Property Value 24
    172300,                  !- Property Value 25
    175010,                  !- Property Value 26
    177740,                  !- Property Value 27
    180470,                  !- Property Value 28
    183220,                  !- Property Value 29
    185990,                  !- Property Value 30
    188760,                  !- Property Value 31
    191550,                  !- Property Value 32
    194350,                  !- Property Value 33
    197170,                  !- Property Value 34
    200000,                  !- Property Value 35
    202850,                  !- Property Value 36
    205710,                  !- Property Value 37
    208590,                  !- Property Value 38
    211490,                  !- Property Value 39
    214400,                  !- Property Value 40
    217330,                  !- Property Value 41
    220280,                  !- Property Value 42
    223250,                  !- Property Value 43
    226250,                  !- Property Value 44
    229260,                  !- Property Value 45
    232290,                  !- Property Value 46
    235350,                  !- Property Value 47
    238440,                  !- Property Value 48
    241540,                  !- Property Value 49
    244680,                  !- Property Value 50
    247840,                  !- Property Value 51
    251030,                  !- Property Value 52
    254260,                  !- Property Value 53
    257510,                  !- Property Value 54
    260800,                  !- Property Value 55
    264130,                  !- Property Value 56
    267500,                  !- Property Value 57
    270910,                  !- Property Value 58
    274370,                  !- Property Value 59
    277880,                  !- Property Value 60
    281450,                  !- Property Value 61
    285080,                  !- Property Value 62
    288770,                  !- Property Value 63
    292540,                  !- Property Value 64
    296390,                  !- Property Value 65
    300340,                  !- Property Value 66
    304400,                  !- Property Value 67
    308600,                  !- Property Value 68
    312960,                  !- Property Value 69
    317510,                  !- Property Value 70
    322320,                  !- Property Value 71
    327480,                  !- Property Value 72
    333140,                  !- Property Value 73
    339640,                  !- Property Value 74
    347940,                  !- Property Value 75
    367020;                  !- Property Value 76

FluidProperties:Saturated,
    R449a,                   !- Fluid Name
    Enthalpy,                !- Fluid Property Type
    FluidGas,                !- Fluid Phase
    R449aSaturatedTemperatures,  !- Temperature Values Name
    360060,                  !- Property Value 1
    361280,                  !- Property Value 2
    362510,                  !- Property Value 3
    363730,                  !- Property Value 4
    364940,                  !- Property Value 5
    366160,                  !- Property Value 6
    367370,                  !- Property Value 7
    368580,                  !- Property Value 8
    369790,                  !- Property Value 9
    370990,                  !- Property Value 10
    372190,                  !- Property Value 11
    373380,                  !- Property Value 12
    374570,                  !- Property Value 13
    375750,                  !- Property Value 14
    376930,                  !- Property Value 15
    378100,                  !- Property Value 16
    379270,                  !- Property Value 17
    380430,                  !- Property Value 18
    381580,                  !- Property Value 19
    382720,                  !- Property Value 20
    383860,                  !- Property Value 21
    384990,                  !- Property Value 22
    386110,                  !- Property Value 23
    387220,                  !- Property Value 24
    388320,                  !- Property Value 25
    389410,                  !- Property Value 26
    390490,                  !- Property Value 27
    391560,                  !- Property Value 28
    392620,                  !- Property Value 29
    393660,                  !- Property Value 30
    394700,                  !- Property Value 31
    395720,                  !- Property Value 32
    396720,                  !- Property Value 33
    397710,                  !- Property Value 34
    398690,                  !- Property Value 35
    399650,                  !- Property Value 36
    400600,                  !- Property Value 37
    401520,                  !- Property Value 38
    402430,                  !- Property Value 39
    403320,                  !- Property Value 40
    404190,                  !- Property Value 41
    405030,                  !- Property Value 42
    405860,                  !- Property Value 43
    406660,                  !- Property Value 44
    407430,                  !- Property Value 45
    408180,                  !- Property Value 46
    408900,                  !- Property Value 47
    409590,                  !- Property Value 48
    410240,                  !- Property Value 49
    410870,                  !- Property Value 50
    411450,                  !- Property Value 51
    412000,                  !- Property Value 52
    412510,                  !- Property Value 53
    412980,                  !- Property Value 54
    413400,                  !- Property Value 55
    413770,                  !- Property Value 56
    414080,                  !- Property Value 57
    414340,                  !- Property Value 58
    414530,                  !- Property Value 59
    414660,                  !- Property Value 60
    414710,                  !- Property Value 61
    414670,                  !- Property Value 62
    414550,                  !- Property Value 63
    414320,                  !- Property Value 64
    413970,                  !- Property Value 65
    413480,                  !- Property Value 66
    412850,                  !- Property Value 67
    412030,                  !- Property Value 68
    410990,                  !- Property Value 69
    409680,                  !- Property Value 70
    408030,                  !- Property Value 71
    405920,                  !- Property Value 72
    403180,                  !- Property Value 73
    399420,                  !- Property Value 74
    393670,                  !- Property Value 75
    378840;                  !- Property Value 76

FluidProperties:Saturated,
    R449a,                   !- Fluid Name
    SpecificHeat,            !- Fluid Property Type
    Fluid,                   !- Fluid Phase
    R449aSaturatedTemperatures,  !- Temperature Values Name
    622.86,                  !- Property Value 1
    635.15,                  !- Property Value 2
    647.35,                  !- Property Value 3
    659.44,                  !- Property Value 4
    671.44,                  !- Property Value 5
    683.34,                  !- Property Value 6
    695.16,                  !- Property Value 7
    706.89,                  !- Property Value 8
    718.54,                  !- Property Value 9
    730.1,                   !- Property Value 10
    741.59,                  !- Property Value 11
    753.01,                  !- Property Value 12
    764.35,                  !- Property Value 13
    775.62,                  !- Property Value 14
    786.83,                  !- Property Value 15
    797.97,                  !- Property Value 16
    809.04,                  !- Property Value 17
    820.06,                  !- Property Value 18
    831.02,                  !- Property Value 19
    841.92,                  !- Property Value 20
    852.77,                  !- Property Value 21
    863.56,                  !- Property Value 22
    874.3,                   !- Property Value 23
    885,                     !- Property Value 24
    895.65,                  !- Property Value 25
    906.26,                  !- Property Value 26
    916.82,                  !- Property Value 27
    927.34,                  !- Property Value 28
    937.82,                  !- Property Value 29
    948.27,                  !- Property Value 30
    958.68,                  !- Property Value 31
    969.05,                  !- Property Value 32
    979.4,                   !- Property Value 33
    989.71,                  !- Property Value 34
    1000,                    !- Property Value 35
    1010.3,                  !- Property Value 36
    1020.5,                  !- Property Value 37
    1030.7,                  !- Property Value 38
    1040.9,                  !- Property Value 39
    1051.1,                  !- Property Value 40
    1061.3,                  !- Property Value 41